/*--------------------------------*- C++ -*----------------------------------*\
  =========                 |
  \\      /  F ield         | OpenFOAM: The Open Source CFD Toolbox
   \\    /   O peration     | Website:  https://openfoam.org
    \\  /    A nd           | Version:  11
     \\/     M anipulation  |
\*---------------------------------------------------------------------------*/
FoamFile
{
    format      ascii;
    class       featureEdgeMesh;
    location    "constant/triSurface";
    object      inlet.eMesh;
}
// * * * * * * * * * * * * * * * * * * * * * * * * * * * * * * * * * * * * * //


// points:

144
(
(15 4.6494298 0.646927)
(15 4.6498599 0.65345699)
(15 4.6500001 0.66000003)
(15 4.6498599 0.66654301)
(15 4.64644 0.62753397)
(15 4.6477199 0.63395298)
(15 4.6487198 0.64042097)
(15 4.6409502 0.608697)
(15 4.6430602 0.61489397)
(15 4.6448898 0.62117702)
(15 4.63305 0.590738)
(15 4.6359501 0.59660703)
(15 4.6385798 0.602597)
(15 4.62287 0.573964)
(15 4.6265101 0.57940501)
(15 4.6299 0.58499998)
(15 4.61059 0.55866098)
(15 4.6149101 0.563582)
(15 4.619 0.56868601)
(15 4.5964198 0.545093)
(15 4.6013398 0.54940802)
(15 4.60607 0.55393398)
(15 4.5805998 0.53349102)
(15 4.58604 0.53712702)
(15 4.59131 0.54099703)
(15 4.5633898 0.52405399)
(15 4.5692601 0.52694798)
(15 4.5749998 0.53009599)
(15 4.5451102 0.51694202)
(15 4.5513 0.51904601)
(15 4.5574002 0.52141798)
(15 4.5260501 0.51227897)
(15 4.5324702 0.513556)
(15 4.5388198 0.51511103)
(15 4.5065398 0.51014298)
(15 4.5130701 0.510571)
(15 4.5195799 0.51128298)
(15 4.4869299 0.510571)
(15 4.4934602 0.51014298)
(15 4.5 0.50999999)
(15 4.4675298 0.513556)
(15 4.4739499 0.51227897)
(15 4.4804201 0.51128298)
(15 4.4487 0.51904601)
(15 4.4548898 0.51694202)
(15 4.4611802 0.51511103)
(15 4.4307399 0.52694798)
(15 4.4366102 0.52405399)
(15 4.4425998 0.52141798)
(15 4.41396 0.53712702)
(15 4.4194002 0.53349102)
(15 4.4250002 0.53009599)
(15 4.3986602 0.54940802)
(15 4.4035802 0.545093)
(15 4.40869 0.54099703)
(15 4.3850899 0.563582)
(15 4.38941 0.55866098)
(15 4.39393 0.55393398)
(15 4.3734899 0.57940501)
(15 4.37713 0.573964)
(15 4.381 0.56868601)
(15 4.3640499 0.59660703)
(15 4.36695 0.590738)
(15 4.3701 0.58499998)
(15 4.3569398 0.61489397)
(15 4.3590498 0.608697)
(15 4.3614202 0.602597)
(15 4.3522801 0.63395298)
(15 4.35356 0.62753397)
(15 4.3551102 0.62117702)
(15 4.3501401 0.65345699)
(15 4.3505702 0.646927)
(15 4.3512802 0.64042097)
(15 4.3505702 0.67307299)
(15 4.3501401 0.66654301)
(15 4.3499999 0.66000003)
(15 4.35356 0.69246602)
(15 4.3522801 0.68604702)
(15 4.3512802 0.67957902)
(15 4.3590498 0.711303)
(15 4.3569398 0.70510602)
(15 4.3551102 0.69882298)
(15 4.36695 0.72926199)
(15 4.3640499 0.72339302)
(15 4.3614202 0.71740299)
(15 4.37713 0.74603599)
(15 4.3734899 0.74059498)
(15 4.3701 0.73500001)
(15 4.38941 0.76133901)
(15 4.3850899 0.75641799)
(15 4.381 0.75131398)
(15 4.4035802 0.77490699)
(15 4.3986602 0.77059197)
(15 4.39393 0.76606601)
(15 4.4194002 0.78650898)
(15 4.41396 0.78287297)
(15 4.40869 0.77900302)
(15 4.4366102 0.795946)
(15 4.4307399 0.79305202)
(15 4.4250002 0.789904)
(15 4.4548898 0.80305803)
(15 4.4487 0.80095398)
(15 4.4425998 0.79858202)
(15 4.4739499 0.80772102)
(15 4.4675298 0.80644399)
(15 4.4611802 0.80488902)
(15 4.4934602 0.80985701)
(15 4.4869299 0.80942899)
(15 4.4804201 0.80871701)
(15 4.5130701 0.80942899)
(15 4.5065398 0.80985701)
(15 4.5 0.81)
(15 4.5324702 0.80644399)
(15 4.5260501 0.80772102)
(15 4.5195799 0.80871701)
(15 4.5513 0.80095398)
(15 4.5451102 0.80305803)
(15 4.5388198 0.80488902)
(15 4.5692601 0.79305202)
(15 4.5633898 0.795946)
(15 4.5574002 0.79858202)
(15 4.58604 0.78287297)
(15 4.5805998 0.78650898)
(15 4.5749998 0.789904)
(15 4.6013398 0.77059197)
(15 4.5964198 0.77490699)
(15 4.59131 0.77900302)
(15 4.6149101 0.75641799)
(15 4.61059 0.76133901)
(15 4.60607 0.76606601)
(15 4.6265101 0.74059498)
(15 4.62287 0.74603599)
(15 4.619 0.75131398)
(15 4.6359501 0.72339302)
(15 4.63305 0.72926199)
(15 4.6299 0.73500001)
(15 4.6430602 0.70510602)
(15 4.6409502 0.711303)
(15 4.6385798 0.71740299)
(15 4.6477199 0.68604702)
(15 4.64644 0.69246602)
(15 4.6448898 0.69882298)
(15 4.6494298 0.67307299)
(15 4.6487198 0.67957902)
)


// edges:

144
(
(0 1)
(1 2)
(2 3)
(4 5)
(5 6)
(6 0)
(7 8)
(8 9)
(9 4)
(10 11)
(11 12)
(12 7)
(13 14)
(14 15)
(15 10)
(16 17)
(17 18)
(18 13)
(19 20)
(20 21)
(21 16)
(22 23)
(23 24)
(24 19)
(25 26)
(26 27)
(27 22)
(28 29)
(29 30)
(30 25)
(31 32)
(32 33)
(33 28)
(34 35)
(35 36)
(36 31)
(37 38)
(38 39)
(39 34)
(40 41)
(41 42)
(42 37)
(43 44)
(44 45)
(45 40)
(46 47)
(47 48)
(48 43)
(49 50)
(50 51)
(51 46)
(52 53)
(53 54)
(54 49)
(55 56)
(56 57)
(57 52)
(58 59)
(59 60)
(60 55)
(61 62)
(62 63)
(63 58)
(64 65)
(65 66)
(66 61)
(67 68)
(68 69)
(69 64)
(70 71)
(71 72)
(72 67)
(73 74)
(74 75)
(75 70)
(76 77)
(77 78)
(78 73)
(79 80)
(80 81)
(81 76)
(82 83)
(83 84)
(84 79)
(85 86)
(86 87)
(87 82)
(88 89)
(89 90)
(90 85)
(91 92)
(92 93)
(93 88)
(94 95)
(95 96)
(96 91)
(97 98)
(98 99)
(99 94)
(100 101)
(101 102)
(102 97)
(103 104)
(104 105)
(105 100)
(106 107)
(107 108)
(108 103)
(109 110)
(110 111)
(111 106)
(112 113)
(113 114)
(114 109)
(115 116)
(116 117)
(117 112)
(118 119)
(119 120)
(120 115)
(121 122)
(122 123)
(123 118)
(124 125)
(125 126)
(126 121)
(127 128)
(128 129)
(129 124)
(130 131)
(131 132)
(132 127)
(133 134)
(134 135)
(135 130)
(136 137)
(137 138)
(138 133)
(139 140)
(140 141)
(141 136)
(3 142)
(142 143)
(143 139)
)

// * * * * * * * * * * * * * * * * * * * * * * * * * * * * * * * * * * * * * //


// ************************************************************************* //
