/*--------------------------------*- C++ -*----------------------------------*\
  =========                 |
  \\      /  F ield         | OpenFOAM: The Open Source CFD Toolbox
   \\    /   O peration     | Website:  https://openfoam.org
    \\  /    A nd           | Version:  11
     \\/     M anipulation  |
\*---------------------------------------------------------------------------*/
FoamFile
{
    format      ascii;
    class       featureEdgeMesh;
    location    "constant/triSurface";
    object      outlet.eMesh;
}
// * * * * * * * * * * * * * * * * * * * * * * * * * * * * * * * * * * * * * //


// points:

144
(
(-3 1.01307 0.510571)
(-3 1.0065399 0.51014298)
(-3 1 0.50999999)
(-3 0.99345702 0.51014298)
(-3 1.03247 0.513556)
(-3 1.02605 0.51227897)
(-3 1.01958 0.51128298)
(-3 1.0513 0.51904601)
(-3 1.04511 0.51694202)
(-3 1.03882 0.51511103)
(-3 1.06926 0.52694798)
(-3 1.06339 0.52405399)
(-3 1.0574 0.52141798)
(-3 1.08604 0.53712702)
(-3 1.08059 0.53349102)
(-3 1.075 0.53009599)
(-3 1.1013401 0.54940802)
(-3 1.09642 0.545093)
(-3 1.09131 0.54099703)
(-3 1.11491 0.563582)
(-3 1.11059 0.55866098)
(-3 1.10607 0.55393398)
(-3 1.12651 0.57940501)
(-3 1.12287 0.573964)
(-3 1.119 0.56868601)
(-3 1.13595 0.59660703)
(-3 1.13305 0.590738)
(-3 1.1299 0.58499998)
(-3 1.14306 0.61489397)
(-3 1.14095 0.608697)
(-3 1.13858 0.602597)
(-3 1.14772 0.63395298)
(-3 1.14644 0.62753397)
(-3 1.14489 0.62117702)
(-3 1.14986 0.65345699)
(-3 1.14943 0.646927)
(-3 1.14872 0.64042097)
(-3 1.14943 0.67307299)
(-3 1.14986 0.66654301)
(-3 1.15 0.66000003)
(-3 1.14644 0.69246602)
(-3 1.14772 0.68604702)
(-3 1.14872 0.67957902)
(-3 1.14095 0.711303)
(-3 1.14306 0.70510602)
(-3 1.14489 0.69882298)
(-3 1.13305 0.72926199)
(-3 1.13595 0.72339302)
(-3 1.13858 0.71740299)
(-3 1.12287 0.74603599)
(-3 1.12651 0.74059498)
(-3 1.1299 0.73500001)
(-3 1.11059 0.76133901)
(-3 1.11491 0.75641799)
(-3 1.119 0.75131398)
(-3 1.09642 0.77490699)
(-3 1.1013401 0.77059197)
(-3 1.10607 0.76606601)
(-3 1.08059 0.78650898)
(-3 1.08604 0.78287297)
(-3 1.09131 0.77900302)
(-3 1.06339 0.795946)
(-3 1.06926 0.79305202)
(-3 1.075 0.789904)
(-3 1.04511 0.80305803)
(-3 1.0513 0.80095398)
(-3 1.0574 0.79858202)
(-3 1.02605 0.80772102)
(-3 1.03247 0.80644399)
(-3 1.03882 0.80488902)
(-3 1.0065399 0.80985701)
(-3 1.01307 0.80942899)
(-3 1.01958 0.80871701)
(-3 0.98692697 0.80942899)
(-3 0.99345702 0.80985701)
(-3 1 0.81)
(-3 0.96753401 0.80644399)
(-3 0.97395301 0.80772102)
(-3 0.98042101 0.80871701)
(-3 0.94869697 0.80095398)
(-3 0.95489401 0.80305803)
(-3 0.96117699 0.80488902)
(-3 0.93073797 0.79305202)
(-3 0.936607 0.795946)
(-3 0.94259799 0.79858202)
(-3 0.91396397 0.78287297)
(-3 0.91940498 0.78650898)
(-3 0.92500001 0.789904)
(-3 0.89866102 0.77059197)
(-3 0.90358198 0.77490699)
(-3 0.90868598 0.77900302)
(-3 0.88509297 0.75641799)
(-3 0.88940799 0.76133901)
(-3 0.89393401 0.76606601)
(-3 0.87349099 0.74059498)
(-3 0.87712699 0.74603599)
(-3 0.880997 0.75131398)
(-3 0.86405402 0.72339302)
(-3 0.86694801 0.72926199)
(-3 0.87009603 0.73500001)
(-3 0.856942 0.70510602)
(-3 0.85904598 0.711303)
(-3 0.86141801 0.71740299)
(-3 0.85227901 0.68604702)
(-3 0.85355598 0.69246602)
(-3 0.855111 0.69882298)
(-3 0.85014302 0.66654301)
(-3 0.85057098 0.67307299)
(-3 0.85128301 0.67957902)
(-3 0.85057098 0.646927)
(-3 0.85014302 0.65345699)
(-3 0.85000002 0.66000003)
(-3 0.85355598 0.62753397)
(-3 0.85227901 0.63395298)
(-3 0.85128301 0.64042097)
(-3 0.85904598 0.608697)
(-3 0.856942 0.61489397)
(-3 0.855111 0.62117702)
(-3 0.86694801 0.590738)
(-3 0.86405402 0.59660703)
(-3 0.86141801 0.602597)
(-3 0.87712699 0.573964)
(-3 0.87349099 0.57940501)
(-3 0.87009603 0.58499998)
(-3 0.88940799 0.55866098)
(-3 0.88509297 0.563582)
(-3 0.880997 0.56868601)
(-3 0.90358198 0.545093)
(-3 0.89866102 0.54940802)
(-3 0.89393401 0.55393398)
(-3 0.91940498 0.53349102)
(-3 0.91396397 0.53712702)
(-3 0.90868598 0.54099703)
(-3 0.936607 0.52405399)
(-3 0.93073797 0.52694798)
(-3 0.92500001 0.53009599)
(-3 0.95489401 0.51694202)
(-3 0.94869697 0.51904601)
(-3 0.94259799 0.52141798)
(-3 0.97395301 0.51227897)
(-3 0.96753401 0.513556)
(-3 0.96117699 0.51511103)
(-3 0.98692697 0.510571)
(-3 0.98042101 0.51128298)
)


// edges:

144
(
(0 1)
(1 2)
(2 3)
(4 5)
(5 6)
(6 0)
(7 8)
(8 9)
(9 4)
(10 11)
(11 12)
(12 7)
(13 14)
(14 15)
(15 10)
(16 17)
(17 18)
(18 13)
(19 20)
(20 21)
(21 16)
(22 23)
(23 24)
(24 19)
(25 26)
(26 27)
(27 22)
(28 29)
(29 30)
(30 25)
(31 32)
(32 33)
(33 28)
(34 35)
(35 36)
(36 31)
(37 38)
(38 39)
(39 34)
(40 41)
(41 42)
(42 37)
(43 44)
(44 45)
(45 40)
(46 47)
(47 48)
(48 43)
(49 50)
(50 51)
(51 46)
(52 53)
(53 54)
(54 49)
(55 56)
(56 57)
(57 52)
(58 59)
(59 60)
(60 55)
(61 62)
(62 63)
(63 58)
(64 65)
(65 66)
(66 61)
(67 68)
(68 69)
(69 64)
(70 71)
(71 72)
(72 67)
(73 74)
(74 75)
(75 70)
(76 77)
(77 78)
(78 73)
(79 80)
(80 81)
(81 76)
(82 83)
(83 84)
(84 79)
(85 86)
(86 87)
(87 82)
(88 89)
(89 90)
(90 85)
(91 92)
(92 93)
(93 88)
(94 95)
(95 96)
(96 91)
(97 98)
(98 99)
(99 94)
(100 101)
(101 102)
(102 97)
(103 104)
(104 105)
(105 100)
(106 107)
(107 108)
(108 103)
(109 110)
(110 111)
(111 106)
(112 113)
(113 114)
(114 109)
(115 116)
(116 117)
(117 112)
(118 119)
(119 120)
(120 115)
(121 122)
(122 123)
(123 118)
(124 125)
(125 126)
(126 121)
(127 128)
(128 129)
(129 124)
(130 131)
(131 132)
(132 127)
(133 134)
(134 135)
(135 130)
(136 137)
(137 138)
(138 133)
(139 140)
(140 141)
(141 136)
(3 142)
(142 143)
(143 139)
)

// * * * * * * * * * * * * * * * * * * * * * * * * * * * * * * * * * * * * * //


// ************************************************************************* //
