/*--------------------------------*- C++ -*----------------------------------*\
  =========                 |
  \\      /  F ield         | OpenFOAM: The Open Source CFD Toolbox
   \\    /   O peration     | Website:  https://openfoam.org
    \\  /    A nd           | Version:  11
     \\/     M anipulation  |
\*---------------------------------------------------------------------------*/
FoamFile
{
    format      ascii;
    class       featureEdgeMesh;
    location    "constant/triSurface";
    object      outletwall.eMesh;
}
// * * * * * * * * * * * * * * * * * * * * * * * * * * * * * * * * * * * * * //


// points:

288
(
(-3 1.0065399 0.80985701)
(-3 1 0.81)
(0 1.0065399 0.80985701)
(0 1.01307 0.80942899)
(-3 1.01307 0.80942899)
(0 1.01958 0.80871701)
(-3 1.01958 0.80871701)
(0 1.02605 0.80772102)
(-3 1.02605 0.80772102)
(0 1.03247 0.80644399)
(-3 1.03247 0.80644399)
(0 1.03882 0.80488902)
(-3 1.03882 0.80488902)
(0 1.04511 0.80305803)
(-3 1.04511 0.80305803)
(0 1.0513 0.80095398)
(-3 1.0513 0.80095398)
(0 1.0574 0.79858202)
(-3 1.0574 0.79858202)
(0 1.06339 0.795946)
(-3 1.06339 0.795946)
(0 1.06926 0.79305202)
(-3 1.06926 0.79305202)
(0 1.075 0.789904)
(-3 1.075 0.789904)
(0 1.08059 0.78650898)
(-3 1.08059 0.78650898)
(0 1.08604 0.78287297)
(-3 1.08604 0.78287297)
(0 1.09131 0.77900302)
(-3 1.09131 0.77900302)
(0 1.09642 0.77490699)
(-3 1.09642 0.77490699)
(0 1.1013401 0.77059197)
(-3 1.1013401 0.77059197)
(0 1.10607 0.76606601)
(-3 1.10607 0.76606601)
(0 1.11059 0.76133901)
(-3 1.11059 0.76133901)
(0 1.11491 0.75641799)
(-3 1.11491 0.75641799)
(0 1.119 0.75131398)
(-3 1.119 0.75131398)
(0 1.12287 0.74603599)
(-3 1.12287 0.74603599)
(0 1.12651 0.74059498)
(-3 1.12651 0.74059498)
(0 1.1299 0.73500001)
(-3 1.1299 0.73500001)
(0 1.13305 0.72926199)
(-3 1.13305 0.72926199)
(0 1.13595 0.72339302)
(-3 1.13595 0.72339302)
(0 1.13858 0.71740299)
(-3 1.13858 0.71740299)
(0 1.14095 0.711303)
(-3 1.14095 0.711303)
(0 1.14306 0.70510602)
(-3 1.14306 0.70510602)
(0 1.14489 0.69882298)
(-3 1.14489 0.69882298)
(0 1.14644 0.69246602)
(-3 1.14644 0.69246602)
(0 1.14772 0.68604702)
(-3 1.14772 0.68604702)
(0 1.14872 0.67957902)
(-3 1.14872 0.67957902)
(0 1.14943 0.67307299)
(-3 1.14943 0.67307299)
(0 1.14986 0.66654301)
(-3 1.14986 0.66654301)
(0 1.15 0.66000003)
(-3 1.15 0.66000003)
(0 1.14986 0.65345699)
(-3 1.14986 0.65345699)
(0 1.14943 0.646927)
(-3 1.14943 0.646927)
(0 1.14872 0.64042097)
(-3 1.14872 0.64042097)
(0 1.14772 0.63395298)
(-3 1.14772 0.63395298)
(0 1.14644 0.62753397)
(-3 1.14644 0.62753397)
(0 1.14489 0.62117702)
(-3 1.14489 0.62117702)
(0 1.14306 0.61489397)
(-3 1.14306 0.61489397)
(0 1.14095 0.608697)
(-3 1.14095 0.608697)
(0 1.13858 0.602597)
(-3 1.13858 0.602597)
(0 1.13595 0.59660703)
(-3 1.13595 0.59660703)
(0 1.13305 0.590738)
(-3 1.13305 0.590738)
(0 1.1299 0.58499998)
(-3 1.1299 0.58499998)
(0 1.12651 0.57940501)
(-3 1.12651 0.57940501)
(0 1.12287 0.573964)
(-3 1.12287 0.573964)
(0 1.119 0.56868601)
(-3 1.119 0.56868601)
(0 1.11491 0.563582)
(-3 1.11491 0.563582)
(0 1.11059 0.55866098)
(-3 1.11059 0.55866098)
(0 1.10607 0.55393398)
(-3 1.10607 0.55393398)
(0 1.1013401 0.54940802)
(-3 1.1013401 0.54940802)
(0 1.09642 0.545093)
(-3 1.09642 0.545093)
(0 1.09131 0.54099703)
(-3 1.09131 0.54099703)
(0 1.08604 0.53712702)
(-3 1.08604 0.53712702)
(0 1.08059 0.53349102)
(-3 1.08059 0.53349102)
(0 1.075 0.53009599)
(-3 1.075 0.53009599)
(0 1.06926 0.52694798)
(-3 1.06926 0.52694798)
(0 1.06339 0.52405399)
(-3 1.06339 0.52405399)
(0 1.0574 0.52141798)
(-3 1.0574 0.52141798)
(0 1.0513 0.51904601)
(-3 1.0513 0.51904601)
(0 1.04511 0.51694202)
(-3 1.04511 0.51694202)
(0 1.03882 0.51511103)
(-3 1.03882 0.51511103)
(0 1.03247 0.513556)
(-3 1.03247 0.513556)
(0 1.02605 0.51227897)
(-3 1.02605 0.51227897)
(0 1.01958 0.51128298)
(-3 1.01958 0.51128298)
(0 1.01307 0.510571)
(-3 1.01307 0.510571)
(0 1.0065399 0.51014298)
(-3 1.0065399 0.51014298)
(0 1 0.50999999)
(-3 1 0.50999999)
(0 0.99345702 0.51014298)
(-3 0.99345702 0.51014298)
(0 0.98692697 0.510571)
(-3 0.98692697 0.510571)
(0 0.98042101 0.51128298)
(-3 0.98042101 0.51128298)
(0 0.97395301 0.51227897)
(-3 0.97395301 0.51227897)
(0 0.96753401 0.513556)
(-3 0.96753401 0.513556)
(0 0.96117699 0.51511103)
(-3 0.96117699 0.51511103)
(0 0.95489401 0.51694202)
(-3 0.95489401 0.51694202)
(0 0.94869697 0.51904601)
(-3 0.94869697 0.51904601)
(0 0.94259799 0.52141798)
(-3 0.94259799 0.52141798)
(0 0.936607 0.52405399)
(-3 0.936607 0.52405399)
(0 0.93073797 0.52694798)
(-3 0.93073797 0.52694798)
(0 0.92500001 0.53009599)
(-3 0.92500001 0.53009599)
(0 0.91940498 0.53349102)
(-3 0.91940498 0.53349102)
(0 0.91396397 0.53712702)
(-3 0.91396397 0.53712702)
(0 0.90868598 0.54099703)
(-3 0.90868598 0.54099703)
(0 0.90358198 0.545093)
(-3 0.90358198 0.545093)
(0 0.89866102 0.54940802)
(-3 0.89866102 0.54940802)
(0 0.89393401 0.55393398)
(-3 0.89393401 0.55393398)
(0 0.88940799 0.55866098)
(-3 0.88940799 0.55866098)
(0 0.88509297 0.563582)
(-3 0.88509297 0.563582)
(0 0.880997 0.56868601)
(-3 0.880997 0.56868601)
(0 0.87712699 0.573964)
(-3 0.87712699 0.573964)
(0 0.87349099 0.57940501)
(-3 0.87349099 0.57940501)
(0 0.87009603 0.58499998)
(-3 0.87009603 0.58499998)
(0 0.86694801 0.590738)
(-3 0.86694801 0.590738)
(0 0.86405402 0.59660703)
(-3 0.86405402 0.59660703)
(0 0.86141801 0.602597)
(-3 0.86141801 0.602597)
(0 0.85904598 0.608697)
(-3 0.85904598 0.608697)
(0 0.856942 0.61489397)
(-3 0.856942 0.61489397)
(0 0.855111 0.62117702)
(-3 0.855111 0.62117702)
(0 0.85355598 0.62753397)
(-3 0.85355598 0.62753397)
(0 0.85227901 0.63395298)
(-3 0.85227901 0.63395298)
(0 0.85128301 0.64042097)
(-3 0.85128301 0.64042097)
(0 0.85057098 0.646927)
(-3 0.85057098 0.646927)
(0 0.85014302 0.65345699)
(-3 0.85014302 0.65345699)
(0 0.85000002 0.66000003)
(-3 0.85000002 0.66000003)
(0 0.85014302 0.66654301)
(-3 0.85014302 0.66654301)
(0 0.85057098 0.67307299)
(-3 0.85057098 0.67307299)
(0 0.85128301 0.67957902)
(-3 0.85128301 0.67957902)
(0 0.85227901 0.68604702)
(-3 0.85227901 0.68604702)
(0 0.85355598 0.69246602)
(-3 0.85355598 0.69246602)
(0 0.855111 0.69882298)
(-3 0.855111 0.69882298)
(0 0.856942 0.70510602)
(-3 0.856942 0.70510602)
(0 0.85904598 0.711303)
(-3 0.85904598 0.711303)
(0 0.86141801 0.71740299)
(-3 0.86141801 0.71740299)
(0 0.86405402 0.72339302)
(-3 0.86405402 0.72339302)
(0 0.86694801 0.72926199)
(-3 0.86694801 0.72926199)
(0 0.87009603 0.73500001)
(-3 0.87009603 0.73500001)
(0 0.87349099 0.74059498)
(-3 0.87349099 0.74059498)
(0 0.87712699 0.74603599)
(-3 0.87712699 0.74603599)
(0 0.880997 0.75131398)
(-3 0.880997 0.75131398)
(0 0.88509297 0.75641799)
(-3 0.88509297 0.75641799)
(0 0.88940799 0.76133901)
(-3 0.88940799 0.76133901)
(0 0.89393401 0.76606601)
(-3 0.89393401 0.76606601)
(0 0.89866102 0.77059197)
(-3 0.89866102 0.77059197)
(0 0.90358198 0.77490699)
(-3 0.90358198 0.77490699)
(0 0.90868598 0.77900302)
(-3 0.90868598 0.77900302)
(0 0.91396397 0.78287297)
(-3 0.91396397 0.78287297)
(0 0.91940498 0.78650898)
(-3 0.91940498 0.78650898)
(0 0.92500001 0.789904)
(-3 0.92500001 0.789904)
(0 0.93073797 0.79305202)
(-3 0.93073797 0.79305202)
(0 0.936607 0.795946)
(-3 0.936607 0.795946)
(0 0.94259799 0.79858202)
(-3 0.94259799 0.79858202)
(0 0.94869697 0.80095398)
(-3 0.94869697 0.80095398)
(0 0.95489401 0.80305803)
(-3 0.95489401 0.80305803)
(0 0.96117699 0.80488902)
(-3 0.96117699 0.80488902)
(0 0.96753401 0.80644399)
(-3 0.96753401 0.80644399)
(0 0.97395301 0.80772102)
(-3 0.97395301 0.80772102)
(0 0.98042101 0.80871701)
(-3 0.98042101 0.80871701)
(0 0.98692697 0.80942899)
(-3 0.98692697 0.80942899)
(0 0.99345702 0.80985701)
(-3 0.99345702 0.80985701)
(0 1 0.81)
)


// edges:

288
(
(0 1)
(2 3)
(4 0)
(3 5)
(6 4)
(5 7)
(8 6)
(7 9)
(10 8)
(9 11)
(12 10)
(11 13)
(14 12)
(13 15)
(16 14)
(15 17)
(18 16)
(17 19)
(20 18)
(19 21)
(22 20)
(21 23)
(24 22)
(23 25)
(26 24)
(25 27)
(28 26)
(27 29)
(30 28)
(29 31)
(32 30)
(31 33)
(34 32)
(33 35)
(36 34)
(35 37)
(38 36)
(37 39)
(40 38)
(39 41)
(42 40)
(41 43)
(44 42)
(43 45)
(46 44)
(45 47)
(48 46)
(47 49)
(50 48)
(49 51)
(52 50)
(51 53)
(54 52)
(53 55)
(56 54)
(55 57)
(58 56)
(57 59)
(60 58)
(59 61)
(62 60)
(61 63)
(64 62)
(63 65)
(66 64)
(65 67)
(68 66)
(67 69)
(70 68)
(69 71)
(72 70)
(71 73)
(74 72)
(73 75)
(76 74)
(75 77)
(78 76)
(77 79)
(80 78)
(79 81)
(82 80)
(81 83)
(84 82)
(83 85)
(86 84)
(85 87)
(88 86)
(87 89)
(90 88)
(89 91)
(92 90)
(91 93)
(94 92)
(93 95)
(96 94)
(95 97)
(98 96)
(97 99)
(100 98)
(99 101)
(102 100)
(101 103)
(104 102)
(103 105)
(106 104)
(105 107)
(108 106)
(107 109)
(110 108)
(109 111)
(112 110)
(111 113)
(114 112)
(113 115)
(116 114)
(115 117)
(118 116)
(117 119)
(120 118)
(119 121)
(122 120)
(121 123)
(124 122)
(123 125)
(126 124)
(125 127)
(128 126)
(127 129)
(130 128)
(129 131)
(132 130)
(131 133)
(134 132)
(133 135)
(136 134)
(135 137)
(138 136)
(137 139)
(140 138)
(139 141)
(142 140)
(141 143)
(144 142)
(143 145)
(146 144)
(145 147)
(148 146)
(147 149)
(150 148)
(149 151)
(152 150)
(151 153)
(154 152)
(153 155)
(156 154)
(155 157)
(158 156)
(157 159)
(160 158)
(159 161)
(162 160)
(161 163)
(164 162)
(163 165)
(166 164)
(165 167)
(168 166)
(167 169)
(170 168)
(169 171)
(172 170)
(171 173)
(174 172)
(173 175)
(176 174)
(175 177)
(178 176)
(177 179)
(180 178)
(179 181)
(182 180)
(181 183)
(184 182)
(183 185)
(186 184)
(185 187)
(188 186)
(187 189)
(190 188)
(189 191)
(192 190)
(191 193)
(194 192)
(193 195)
(196 194)
(195 197)
(198 196)
(197 199)
(200 198)
(199 201)
(202 200)
(201 203)
(204 202)
(203 205)
(206 204)
(205 207)
(208 206)
(207 209)
(210 208)
(209 211)
(212 210)
(211 213)
(214 212)
(213 215)
(216 214)
(215 217)
(218 216)
(217 219)
(220 218)
(219 221)
(222 220)
(221 223)
(224 222)
(223 225)
(226 224)
(225 227)
(228 226)
(227 229)
(230 228)
(229 231)
(232 230)
(231 233)
(234 232)
(233 235)
(236 234)
(235 237)
(238 236)
(237 239)
(240 238)
(239 241)
(242 240)
(241 243)
(244 242)
(243 245)
(246 244)
(245 247)
(248 246)
(247 249)
(250 248)
(249 251)
(252 250)
(251 253)
(254 252)
(253 255)
(256 254)
(255 257)
(258 256)
(257 259)
(260 258)
(259 261)
(262 260)
(261 263)
(264 262)
(263 265)
(266 264)
(265 267)
(268 266)
(267 269)
(270 268)
(269 271)
(272 270)
(271 273)
(274 272)
(273 275)
(276 274)
(275 277)
(278 276)
(277 279)
(280 278)
(279 281)
(282 280)
(281 283)
(284 282)
(283 285)
(286 284)
(285 287)
(1 286)
(287 2)
)

// * * * * * * * * * * * * * * * * * * * * * * * * * * * * * * * * * * * * * //


// ************************************************************************* //
