/*--------------------------------*- C++ -*----------------------------------*\
  =========                 |
  \\      /  F ield         | OpenFOAM: The Open Source CFD Toolbox
   \\    /   O peration     | Website:  https://openfoam.org
    \\  /    A nd           | Version:  11
     \\/     M anipulation  |
\*---------------------------------------------------------------------------*/
FoamFile
{
    format      ascii;
    class       featureEdgeMesh;
    location    "constant/triSurface";
    object      wall.eMesh;
}
// * * * * * * * * * * * * * * * * * * * * * * * * * * * * * * * * * * * * * //


// points:

296
(
(12 0 1.3200001)
(0 0 1.3200001)
(12 0 0)
(0 0 0)
(12 6 0)
(12 6 1.3200001)
(-0 6 1.3200001)
(-0 6 0)
(12 4.6494298 0.646927)
(12 4.6487198 0.64042097)
(12 4.3614202 0.602597)
(12 4.3590498 0.608697)
(12 4.6494298 0.67307299)
(12 4.6498599 0.66654301)
(12 4.6500001 0.66000003)
(12 4.6498599 0.65345699)
(12 4.6385798 0.71740299)
(12 4.6409502 0.711303)
(12 4.6359501 0.72339302)
(12 4.6477199 0.63395298)
(12 4.64644 0.62753397)
(12 4.6448898 0.62117702)
(12 4.6430602 0.61489397)
(12 4.6409502 0.608697)
(12 4.6385798 0.602597)
(12 4.3850899 0.75641799)
(12 4.38941 0.76133901)
(12 4.3701 0.58499998)
(12 4.36695 0.590738)
(12 4.3640499 0.59660703)
(12 4.3522801 0.63395298)
(12 4.3512802 0.64042097)
(12 4.3614202 0.71740299)
(12 4.3640499 0.72339302)
(12 4.36695 0.72926199)
(12 4.3701 0.73500001)
(12 4.381 0.75131398)
(12 4.6265101 0.74059498)
(12 4.6299 0.73500001)
(12 4.63305 0.72926199)
(12 4.64644 0.69246602)
(12 4.6477199 0.68604702)
(12 4.6487198 0.67957902)
(12 4.35356 0.62753397)
(12 4.3505702 0.646927)
(12 4.3501401 0.65345699)
(12 4.3499999 0.66000003)
(12 4.6430602 0.70510602)
(12 4.6448898 0.69882298)
(12 4.6359501 0.59660703)
(12 4.63305 0.590738)
(12 4.6299 0.58499998)
(12 4.4487 0.51904601)
(12 4.4425998 0.52141798)
(12 4.4366102 0.52405399)
(12 4.4307399 0.52694798)
(12 4.3986602 0.54940802)
(12 4.39393 0.55393398)
(12 4.38941 0.55866098)
(12 4.3850899 0.563582)
(12 4.381 0.56868601)
(12 4.37713 0.573964)
(12 4.3734899 0.57940501)
(12 4.3501401 0.66654301)
(12 4.3505702 0.67307299)
(12 4.3512802 0.67957902)
(12 4.3522801 0.68604702)
(12 4.35356 0.69246602)
(12 4.3551102 0.69882298)
(12 4.3569398 0.70510602)
(12 4.3590498 0.711303)
(12 4.3734899 0.74059498)
(12 4.37713 0.74603599)
(12 4.40869 0.77900302)
(12 4.41396 0.78287297)
(12 4.4035802 0.77490699)
(12 4.4250002 0.53009599)
(12 4.4194002 0.53349102)
(12 4.41396 0.53712702)
(12 4.40869 0.54099703)
(12 4.4035802 0.545093)
(12 4.3569398 0.61489397)
(12 4.3551102 0.62117702)
(12 4.39393 0.76606601)
(12 4.3986602 0.77059197)
(12 4.61059 0.76133901)
(12 4.6149101 0.75641799)
(12 4.6265101 0.57940501)
(12 4.62287 0.573964)
(12 4.619 0.56868601)
(12 4.4194002 0.78650898)
(12 4.4250002 0.789904)
(12 4.4307399 0.79305202)
(12 4.619 0.75131398)
(12 4.62287 0.74603599)
(12 4.6149101 0.563582)
(12 4.61059 0.55866098)
(12 4.60607 0.55393398)
(12 4.5749998 0.53009599)
(12 4.5692601 0.52694798)
(12 4.5633898 0.52405399)
(12 4.5574002 0.52141798)
(12 4.5513 0.51904601)
(12 4.5451102 0.51694202)
(12 4.5388198 0.51511103)
(12 4.5324702 0.513556)
(12 4.5260501 0.51227897)
(12 4.4366102 0.795946)
(12 4.4425998 0.79858202)
(12 4.4487 0.80095398)
(12 4.5574002 0.79858202)
(12 4.5633898 0.795946)
(12 4.5964198 0.77490699)
(12 4.6013398 0.77059197)
(12 4.60607 0.76606601)
(12 4.5 0.50999999)
(12 4.4934602 0.51014298)
(12 4.5692601 0.79305202)
(12 4.5749998 0.789904)
(12 4.5805998 0.78650898)
(12 4.6013398 0.54940802)
(12 4.5964198 0.545093)
(12 4.59131 0.54099703)
(12 4.58604 0.53712702)
(12 4.5805998 0.53349102)
(12 4.5195799 0.51128298)
(12 4.5130701 0.510571)
(12 4.5065398 0.51014298)
(12 4.4548898 0.80305803)
(12 4.4611802 0.80488902)
(12 4.58604 0.78287297)
(12 4.59131 0.77900302)
(12 4.4739499 0.51227897)
(12 4.4675298 0.513556)
(12 4.4611802 0.51511103)
(12 4.4548898 0.51694202)
(12 4.4675298 0.80644399)
(12 4.4739499 0.80772102)
(12 4.4804201 0.80871701)
(12 4.5 0.81)
(12 4.5065398 0.80985701)
(12 4.5130701 0.80942899)
(12 4.5195799 0.80871701)
(12 4.5260501 0.80772102)
(12 4.5324702 0.80644399)
(12 4.5388198 0.80488902)
(12 4.5451102 0.80305803)
(12 4.5513 0.80095398)
(12 4.4869299 0.510571)
(12 4.4804201 0.51128298)
(12 4.4869299 0.80942899)
(12 4.4934602 0.80985701)
(0 0.93073797 0.79305202)
(0 0.92500001 0.789904)
(0 0.856942 0.61489397)
(0 0.85904598 0.608697)
(0 0.86141801 0.602597)
(0 0.86405402 0.59660703)
(0 0.90868598 0.77900302)
(0 0.90358198 0.77490699)
(0 0.89866102 0.77059197)
(0 0.89393401 0.76606601)
(0 0.87009603 0.73500001)
(0 0.86694801 0.72926199)
(0 0.86405402 0.72339302)
(0 0.86141801 0.71740299)
(0 0.87712699 0.573964)
(0 0.880997 0.56868601)
(0 0.87349099 0.57940501)
(0 0.88509297 0.563582)
(0 0.88940799 0.55866098)
(0 0.89393401 0.55393398)
(0 0.91396397 0.53712702)
(0 0.91940498 0.53349102)
(0 0.90868598 0.54099703)
(0 0.92500001 0.53009599)
(0 0.93073797 0.52694798)
(0 0.936607 0.52405399)
(0 1.14986 0.65345699)
(0 1.15 0.66000003)
(0 1.14943 0.646927)
(0 0.91940498 0.78650898)
(0 0.91396397 0.78287297)
(0 0.88940799 0.76133901)
(0 0.88509297 0.75641799)
(0 0.880997 0.75131398)
(0 0.87712699 0.74603599)
(0 0.87349099 0.74059498)
(0 0.85904598 0.711303)
(0 0.856942 0.70510602)
(0 0.855111 0.69882298)
(0 0.85014302 0.65345699)
(0 0.85057098 0.646927)
(0 0.85128301 0.64042097)
(0 0.85227901 0.63395298)
(0 0.86694801 0.590738)
(0 0.87009603 0.58499998)
(0 0.89866102 0.54940802)
(0 0.90358198 0.545093)
(0 1.01307 0.80942899)
(0 1.0065399 0.80985701)
(0 1 0.81)
(0 0.99345702 0.80985701)
(0 0.98692697 0.80942899)
(0 0.85128301 0.67957902)
(0 0.85057098 0.67307299)
(0 0.85014302 0.66654301)
(0 0.85000002 0.66000003)
(0 0.85355598 0.62753397)
(0 0.855111 0.62117702)
(0 0.97395301 0.51227897)
(0 0.98042101 0.51128298)
(0 1.12287 0.573964)
(0 1.12651 0.57940501)
(0 1.1299 0.58499998)
(0 1.13305 0.590738)
(0 1.13595 0.59660703)
(0 1.13858 0.602597)
(0 1.14095 0.608697)
(0 1.14306 0.61489397)
(0 1.14489 0.62117702)
(0 1.14644 0.62753397)
(0 1.14986 0.66654301)
(0 1.14943 0.67307299)
(0 1.14872 0.67957902)
(0 1.14772 0.68604702)
(0 1.14644 0.69246602)
(0 1.14489 0.69882298)
(0 0.85355598 0.69246602)
(0 0.85227901 0.68604702)
(0 1.14772 0.63395298)
(0 1.14872 0.64042097)
(0 1.03882 0.80488902)
(0 1.03247 0.80644399)
(0 0.98042101 0.80871701)
(0 0.97395301 0.80772102)
(0 0.96753401 0.80644399)
(0 0.96117699 0.80488902)
(0 0.95489401 0.80305803)
(0 0.94869697 0.80095398)
(0 0.94259799 0.79858202)
(0 0.936607 0.795946)
(0 1.02605 0.51227897)
(0 1.03247 0.513556)
(0 1.03882 0.51511103)
(0 1.14306 0.70510602)
(0 1.14095 0.711303)
(0 1.13858 0.71740299)
(0 1.02605 0.80772102)
(0 1.01958 0.80871701)
(0 0.94259799 0.52141798)
(0 0.94869697 0.51904601)
(0 0.95489401 0.51694202)
(0 0.98692697 0.510571)
(0 0.99345702 0.51014298)
(0 1 0.50999999)
(0 1.075 0.53009599)
(0 1.08059 0.53349102)
(0 1.08604 0.53712702)
(0 1.09131 0.54099703)
(0 1.10607 0.55393398)
(0 1.11059 0.55866098)
(0 1.11491 0.563582)
(0 1.119 0.56868601)
(0 1.13595 0.72339302)
(0 1.13305 0.72926199)
(0 1.1299 0.73500001)
(0 1.06339 0.795946)
(0 1.0574 0.79858202)
(0 1.0513 0.80095398)
(0 1.04511 0.80305803)
(0 0.96117699 0.51511103)
(0 0.96753401 0.513556)
(0 1.0065399 0.51014298)
(0 1.01307 0.510571)
(0 1.01958 0.51128298)
(0 1.04511 0.51694202)
(0 1.0513 0.51904601)
(0 1.0574 0.52141798)
(0 1.08604 0.78287297)
(0 1.08059 0.78650898)
(0 1.09131 0.77900302)
(0 1.075 0.789904)
(0 1.06926 0.79305202)
(0 1.06339 0.52405399)
(0 1.06926 0.52694798)
(0 1.09642 0.545093)
(0 1.1013401 0.54940802)
(0 1.12651 0.74059498)
(0 1.12287 0.74603599)
(0 1.119 0.75131398)
(0 1.11491 0.75641799)
(0 1.11059 0.76133901)
(0 1.10607 0.76606601)
(0 1.1013401 0.77059197)
(0 1.09642 0.77490699)
)


// edges:

300
(
(2 0)
(1 3)
(4 5)
(6 7)
(0 1)
(3 2)
(8 9)
(10 11)
(12 13)
(13 14)
(14 15)
(15 8)
(16 17)
(18 16)
(9 19)
(19 20)
(20 21)
(21 22)
(22 23)
(23 24)
(25 26)
(27 28)
(28 29)
(29 10)
(30 31)
(32 33)
(33 34)
(34 35)
(36 25)
(37 38)
(38 39)
(39 18)
(40 41)
(41 42)
(42 12)
(43 30)
(31 44)
(44 45)
(45 46)
(17 47)
(47 48)
(48 40)
(24 49)
(49 50)
(50 51)
(52 53)
(53 54)
(54 55)
(56 57)
(57 58)
(58 59)
(59 60)
(60 61)
(61 62)
(62 27)
(46 63)
(63 64)
(64 65)
(65 66)
(66 67)
(67 68)
(68 69)
(69 70)
(70 32)
(35 71)
(71 72)
(72 36)
(73 74)
(75 73)
(55 76)
(76 77)
(77 78)
(78 79)
(79 80)
(80 56)
(11 81)
(81 82)
(82 43)
(26 83)
(83 84)
(84 75)
(85 86)
(51 87)
(87 88)
(88 89)
(74 90)
(90 91)
(91 92)
(86 93)
(93 94)
(94 37)
(89 95)
(95 96)
(96 97)
(98 99)
(99 100)
(100 101)
(101 102)
(102 103)
(103 104)
(104 105)
(105 106)
(92 107)
(107 108)
(108 109)
(110 111)
(112 113)
(113 114)
(114 85)
(115 116)
(111 117)
(117 118)
(118 119)
(97 120)
(120 121)
(121 122)
(122 123)
(123 124)
(124 98)
(106 125)
(125 126)
(2 4)
(126 127)
(127 115)
(109 128)
(128 129)
(5 0)
(119 130)
(130 131)
(131 112)
(132 133)
(133 134)
(134 135)
(135 52)
(129 136)
(136 137)
(137 138)
(139 140)
(140 141)
(141 142)
(142 143)
(143 144)
(144 145)
(145 146)
(146 147)
(147 110)
(116 148)
(148 149)
(149 132)
(138 150)
(150 151)
(151 139)
(152 153)
(154 155)
(155 156)
(156 157)
(158 159)
(159 160)
(160 161)
(162 163)
(163 164)
(164 165)
(166 167)
(168 166)
(167 169)
(169 170)
(170 171)
(172 173)
(174 172)
(173 175)
(175 176)
(176 177)
(178 179)
(180 178)
(153 181)
(181 182)
(182 158)
(161 183)
(183 184)
(184 185)
(185 186)
(186 187)
(187 162)
(165 188)
(188 189)
(189 190)
(191 192)
(192 193)
(193 194)
(157 195)
(195 196)
(196 168)
(171 197)
(197 198)
(198 174)
(199 200)
(200 201)
(201 202)
(202 203)
(204 205)
(205 206)
(206 207)
(207 191)
(194 208)
(208 209)
(209 154)
(210 211)
(212 213)
(213 214)
(214 215)
(215 216)
(216 217)
(217 218)
(218 219)
(219 220)
(220 221)
(179 222)
(222 223)
(223 224)
(224 225)
(225 226)
(226 227)
(190 228)
(228 229)
(229 204)
(221 230)
(230 231)
(231 180)
(232 233)
(203 234)
(234 235)
(235 236)
(236 237)
(237 238)
(238 239)
(239 240)
(240 241)
(241 152)
(242 243)
(243 244)
(227 245)
(245 246)
(246 247)
(233 248)
(248 249)
(249 199)
(177 250)
(250 251)
(251 252)
(211 253)
(253 254)
(254 255)
(256 257)
(257 258)
(258 259)
(260 261)
(261 262)
(262 263)
(263 212)
(247 264)
(264 265)
(265 266)
(267 268)
(268 269)
(1 6)
(269 270)
(270 232)
(252 271)
(271 272)
(272 210)
(255 273)
(273 274)
(7 3)
(274 275)
(275 242)
(244 276)
(276 277)
(277 278)
(279 280)
(281 279)
(280 282)
(282 283)
(283 267)
(278 284)
(284 285)
(285 256)
(259 286)
(286 287)
(287 260)
(266 288)
(288 289)
(289 290)
(290 291)
(291 292)
(292 293)
(293 294)
(294 295)
(295 281)
(6 5)
(4 7)
)

// * * * * * * * * * * * * * * * * * * * * * * * * * * * * * * * * * * * * * //


// ************************************************************************* //
